$# LS-DYNA Keyword file created by LS-PrePost(R) 2025 R1 (v4.12.6) - 14May2025
$# Created on Jan-19-2026 (14:18:48)
*CONTROL_ACCURACY
$#     osu       inn    pidosu      iacc     exacc    srtflg
         0         2         0         0       0.0         0
*CONTROL_BULK_VISCOSITY
$#      q1        q2      type     btype    tstype
       1.5      0.06         1         0         0
*CONTROL_ENERGY
$#    hgen      rwen    slnten     rylen     irgen     maten     drlen     disen
         2         2         2         2         2         1         1         1
*CONTROL_OUTPUT
$#   npopt    neecho    nrefup    iaccop     opifs    ipnint    ikedit    iflush
         0         0         0         0       0.0         0       200      5000
$#   iprtf    ierode   tet10s8    msgmax    ipcurv      gmdt   ip1dblt      eocs
         0         0         2         0         0       0.0         0         0
$#   tolev    newleg    frfreq     minfo    solsig    msgflg    cdetol     igeom
         2         0         1         0         0         0      10.0         1
*CONTROL_SOLID
$#   esort    fmatrx   niptets    swlocl    psfail   t10jtol      icoh    tet13k
         1         0         4         1         0       0.0         0         1
*BOUNDARY_SPC_SET
$#    nsid       cid      dofx      dofy      dofz     dofrx     dofry     dofrz
         5         0         1         1         1         1         1         1
*CONTACT_AUTOMATIC_GENERAL_ID
$#     cid                                                                 title
         0General Collison
$#   surfa     surfb  surfatyp  surfbtyp   saboxid   sbboxid      sapr      sbpr
         1         0         2         0         0         0         0         0
$#      fs        fd        dc        vc       vdc    penchk        bt        dt
       0.8       0.0       0.0       0.0       0.0         0       0.01.00000E20
$#    sfsa      sfsb      sast      sbst     sfsat     sfsbt       fsf       vsf
       1.0       1.0       0.0       0.0       1.0       1.0       1.0       1.0
*SET_PART_LIST_TITLE
general Set
$#     sid       da1       da2       da3       da4    solver
         1       0.0       0.0       0.0       0.0MECH
$#    pid1      pid2      pid3      pid4      pid5      pid6      pid7      pid8
         1         2         7        11         0         0         0         0
*HOURGLASS
$#    hgid       ihq        qm       ibq        q1        q2    qb/vdc        qw
         1         7       1.0         0       1.5      0.06       1.0       1.0
*MAT_RIGID_TITLE
Dummy Head
$#     mid        ro         e        pr         n    couple         m     alias
         21.15000E-6     207.0      0.28       0.0       0.0       0.0          
$#     cmo      con1      con2    spcnid      xspc      yspc      zspc
       0.0         0         0         0       0.0       0.0       0.0
$#lco or a1        a2        a3        v1        v2        v3    bndlco
       0.0       0.0       0.0       0.0       0.0       0.0       0.0
*MAT_RIGID_TITLE
Wood Base
$#     mid        ro         e        pr         n    couple         m     alias
         36.00000E-7      10.0       0.4       0.0       0.0       0.0          
$#     cmo      con1      con2    spcnid      xspc      yspc      zspc
       0.0         0         0         0       0.0       0.0       0.0
$#lco or a1        a2        a3        v1        v2        v3    bndlco
       0.0       0.0       0.0       0.0       0.0       0.0       0.0
*MAT_ELASTIC_TITLE
Steel spring
$#     mid        ro         e        pr        da        db  not used  not used
       1007.85000E-6     210.0     0.313       0.0       0.0         0         0
*NODE
$#   nid               x               y               z      tc      rc
 3599605       -121.4386         9.46804        134.4187       0       0
 3599606       -121.0117        13.43577        134.4112       0       0
 3599607        -116.981        8.857445         134.411       0       0
 3599608       -116.5058        12.90467        134.4037       0       0
 3599609       -121.9438        5.512566        134.3626       0       0
 3599610       -117.5641         4.82412        134.3544       0       0
 3599611       -125.8607         10.0281         134.333       0       0
 3599612       -125.4933        13.91262        134.3227       0       0
 3599613        -112.463        8.200645        134.3188       0       0
 3599614       -111.9522        12.32037         134.313       0       0
 3599615       -120.6619        17.43226        134.3118       0       0
 3599616       -116.1353         17.0004        134.3076       0       0
 3599617       -126.2778        6.165901        134.2844       0       0
 3599618       -122.5677        1.542717        134.2641       0       0
 3599619       -113.1104        4.108696        134.2597       0       0
 3599620       -118.2847       0.7554855        134.2532       0       0
 3599621       -125.1722          17.822        134.2265       0       0
 3599622        -111.577        16.52222        134.2192       0       0
 3599623       -126.7883        2.302544        134.1899       0       0
 3599624       -113.9046      -0.0286636        134.1505       0       0
$ ... 14945 like lines cut
*DEFINE_COORDINATE_NODES
$#     cid        n1        n2        n3      flag       dir
         1   3606392   3606404   3606140         0X
*DEFINE_COORDINATE_NODES
$#     cid        n1        n2        n3      flag       dir
         2   3606140   3606141   3606119         0X
*DEFINE_COORDINATE_NODES
$#     cid        n1        n2        n3      flag       dir
         3   3606152   3606153   3606131         0X
*DEFINE_COORDINATE_NODES
$#     cid        n1        n2        n3      flag       dir
         4   3606404   3606405   3606383         0X
*CONSTRAINED_EXTRA_NODES_SET
$#     pid      nsid     iflag
         3         4         0
*CONSTRAINED_RIGID_BODIES
$#    pidl      pidc     iflag
         2         4         0
         4         5         0
         2         3         0
*PART
$#                                                                         title
dummy head
$#     pid     secid       mid     eosid      hgid      grav    adpopt      tmid
         2         2         2         0         0         0         0         0
*SECTION_SOLID_TITLE
dummy head
$#   secid    elform       aet    unused    unused    unused    cohoff   gaskett
         2        -1         0                                     0.0       0.0
*PART
$#                                                                         title
base
$#     pid     secid       mid     eosid      hgid      grav    adpopt      tmid
         3         2         3         0         0         0         0         0
*PART
$#                                                                         title
support bar
$#     pid     secid       mid     eosid      hgid      grav    adpopt      tmid
         4         2         2         0         0         0         0         0
*PART
$#                                                                         title
Acclerator
$#     pid     secid       mid     eosid      hgid      grav    adpopt      tmid
         5         2         2         0         0         0         0         0
*ELEMENT_SOLID
$#   eid     pid      n1      n2      n3      n4      n5      n6      n7      n8
 1528075       3 3606052 3606053 3606074 3606073 3606493 3606494 3606515 3606514
 1528076       3 3606053 3606054 3606075 3606074 3606494 3606495 3606516 3606515
 1528077       3 3606054 3606055 3606076 3606075 3606495 3606496 3606517 3606516
 1528078       3 3606055 3606056 3606077 3606076 3606496 3606497 3606518 3606517
 1528079       3 3606056 3606057 3606078 3606077 3606497 3606498 3606519 3606518
 1528080       3 3606057 3606058 3606079 3606078 3606498 3606499 3606520 3606519
 1528081       3 3606058 3606059 3606080 3606079 3606499 3606500 3606521 3606520
 1528082       3 3606059 3606060 3606081 3606080 3606500 3606501 3606522 3606521
 1528083       3 3606060 3606061 3606082 3606081 3606501 3606502 3606523 3606522
 1528084       3 3606061 3606062 3606083 3606082 3606502 3606503 3606524 3606523
 1528085       3 3606062 3606063 3606084 3606083 3606503 3606504 3606525 3606524
 1528086       3 3606063 3606064 3606085 3606084 3606504 3606505 3606526 3606525
 1528087       3 3606064 3606065 3606086 3606085 3606505 3606506 3606527 3606526
 1528088       3 3606065 3606066 3606087 3606086 3606506 3606507 3606528 3606527
 1528089       3 3606066 3606067 3606088 3606087 3606507 3606508 3606529 3606528
 1528090       3 3606067 3606068 3606089 3606088 3606508 3606509 3606530 3606529
 1528091       3 3606068 3606069 3606090 3606089 3606509 3606510 3606531 3606530
 1528092       3 3606069 3606070 3606091 3606090 3606510 3606511 3606532 3606531
 1528093       3 3606070 3606071 3606092 3606091 3606511 3606512 3606533 3606532
 1528094       3 3606071 3606072 3606093 3606092 3606512 3606513 3606534 3606533
$ ... 7530 like lines cut
*ELEMENT_SEATBELT_ACCELEROMETER
$#  sbacid      nid1      nid2      nid3     igrav    intopt      mass
         1   3607937   3607938   3607942         0         1       0.0
*INCLUDE
$#                                                                      filename
compression_spring_25_100_solid.k
*SECTION_SOLID_TITLE
spring solid
$#   secid    elform       aet    unused    unused    unused    cohoff   gaskett
         6        13         0                                     0.0       0.0
*SECTION_SHELL_TITLE
Shell
$#   secid    elform      shrf       nip     propt   qr/irid     icomp     setyp
       100         2       1.0         2       1.0         0         0         1
$#      t1        t2        t3        t4      nloc     marea      idof    edgset
       2.0       2.0       2.0       2.0       1.0       0.0       0.0         0
*SECTION_BEAM_TITLE
beam
$#   secid    elform      shrf   qr/irid       cst     scoor       nsm     naupd
       101         1       0.9         2         1       3.0       0.0         0
$#     ts1       ts2       tt1       tt2     nsloc     ntloc     itorm
      6.35      6.35       0.0       0.0       0.0       0.0       2.0
*END
