$# LS-DYNA Keyword file created by LS-PrePost(R) 2025 R1 (v4.12.6) - 14May2025
$# Created on Oct-22-2025 (10:45:37)
$ VKI 132352 12-Oct-25 16:47:24
*KEYWORD
*TITLE
$#                                                                         title
LS-DYNA keyword deck by LS-PrePost
*MAT_ELASTIC
$#     mid        ro         e        pr        da        db  not used  not used
         8    1520.0  133758.3     0.289       0.0       0.0         0         0
$***       Nodes
*NODE
$#   nid               x               y               z      tc      rc
       1        177.0431        5.015609         1.02705       0       0
       2        4.966871         9.09815         1.02705       0       0
       3        8.968165         9.09815         1.02705       0       0
       4        12.96957         9.09815         1.02705       0       0
       5        16.97103         9.09815         1.02705       0       0
       6        20.97249         9.09815         1.02705       0       0
       7        24.97395         9.09815         1.02705       0       0
       8        28.97541         9.09815         1.02705       0       0
       9        32.97687         9.09815         1.02705       0       0
      10        36.97832         9.09815         1.02705       0       0
      11        40.97978         9.09815         1.02705       0       0
      12        44.98124         9.09815         1.02705       0       0
      13         48.9827         9.09815         1.02705       0       0
      14        52.98415         9.09815         1.02705       0       0
      15        56.98561         9.09815         1.02705       0       0
      16        60.98707         9.09815         1.02705       0       0
      17        64.98853         9.09815         1.02705       0       0
      18        68.98998         9.09815         1.02705       0       0
      19        72.99145         9.09815         1.02705       0       0
      20         76.9929         9.09815         1.02705       0       0
$ ... 230 like lines cut
*PART
$#                                                                         title
Carbon FIber Rod
$#     pid     secid       mid     eosid      hgid      grav    adpopt      tmid
         8         8         8         0         0         0         0         0
*SECTION_SOLID
$#   secid    elform       aet    unused    unused    unused    cohoff   gaskett
         8        10         0                                     0.0       0.0
$***       Elements
*ELEMENT_SOLID
$#   eid     pid      n1      n2      n3      n4      n5      n6      n7      n8
       1       8     249     215     216     174     174     174     174     174
       2       8     249     216     131     174     174     174     174     174
       3       8     249     131     215     174     174     174     174     174
       4       8     157     205     204     235     235     235     235     235
       5       8     157     156     114     235     235     235     235     235
       6       8     157     204     156     235     235     235     235     235
       7       8     157     114     236     235     235     235     235     235
       8       8     157     236     205     235     235     235     235     235
       9       8     235     205     204      71      71      71      71      71
      10       8     235      70      27      71      71      71      71      71
      11       8     235     204      70      71      71      71      71      71
      12       8     235      27     236      71      71      71      71      71
      13       8     235     236     205      71      71      71      71      71
      14       8     191     227     228      14      14      14      14      14
      15       8     191      58      13      14      14      14      14      14
      16       8     191      13     227      14      14      14      14      14
      17       8     191     228      58      14      14      14      14      14
      18       8     212     245     244     126     126     126     126     126
      19       8     212     169     245     126     126     126     126     126
      20       8     212     244     169     126     126     126     126     126
$ ... 485 like lines cut
*END
