$# LS-DYNA Keyword file created by LS-PrePost(R) 2025 R1 (v4.12.6) - 14May2025
$# Created on Oct-22-2025 (09:47:34)
*KEYWORD
*CONTROL_ACCURACY
$#     osu       inn    pidosu      iacc     exacc    srtflg
         0         2         0         0       0.0         0
*CONTROL_BULK_VISCOSITY
$#      q1        q2      type     btype    tstype
       1.5      0.06         1         0         0
*CONTROL_ENERGY
$#    hgen      rwen    slnten     rylen     irgen     maten     drlen     disen
         2         2         2         2         2         1         1         1
*CONTROL_OUTPUT
$#   npopt    neecho    nrefup    iaccop     opifs    ipnint    ikedit    iflush
         0         0         0         0       0.0         0       200      5000
$#   iprtf    ierode   tet10s8    msgmax    ipcurv      gmdt   ip1dblt      eocs
         0         0         2         0         0       0.0         0         0
$#   tolev    newleg    frfreq     minfo    solsig    msgflg    cdetol     igeom
         2         0         1         0         0         0      10.0         1
*CONTROL_TERMINATION
$#  endtim    endcyc     dtmin    endeng    endmas     nosol
      10.0         0       0.0       0.01.000000E8         0
*DATABASE_BINARY_D3PLOT
$#      dt      lcdt      beam     npltc    psetid
       0.5         0         0         0         0
*BOUNDARY_SPC_SET
$#    nsid       cid      dofx      dofy      dofz     dofrx     dofry     dofrz
         3         0         1         1         1         0         0         0
*SET_NODE_LIST_TITLE
bottom_spring
$#     sid       da1       da2       da3       da4    solver       its         -
         3       0.0       0.0       0.0       0.0MECH               1          
$#    nid1      nid2      nid3      nid4      nid5      nid6      nid7      nid8
    447648    447649    447650    447651    447652    447653    447654    447655
    447656    447657    447658         0         0         0         0         0
*CONTACT_AUTOMATIC_SURFACE_TO_SURFACE_ID
$#     cid                                                                 title
    256791                                                                      
$#   surfa     surfb  surfatyp  surfbtyp   saboxid   sbboxid      sapr      sbpr
         2         6         3         3         0         0         0         0
$#      fs        fd        dc        vc       vdc    penchk        bt        dt
       0.8       0.8       0.0       0.0       0.0         0       0.01.00000E20
$#    sfsa      sfsb      sast      sbst     sfsat     sfsbt       fsf       vsf
       1.0       1.0       0.0       0.0       1.0       1.0       1.0       1.0
$#    soft    sofscl    lcidab    maxpar     sbopt     depth     bsort    frcfrq
         2       0.1         0     1.025         2         2         0         1
*HOURGLASS
$#    hgid       ihq        qm       ibq        q1        q2    qb/vdc        qw
         2         7       1.0         0       1.5      0.06       1.0       1.0
*MAT_OGDEN_RUBBER_TITLE
Skin
$#     mid        ro        pr         n        nv         g      sigf       ref
         21.08770E-6     0.493         0         0    0.3038   0.00373       0.0
$#     mu1       mu2       mu3       mu4       mu5       mu6       mu7       mu8
 0.0099025 -0.037616  0.088133       0.0       0.0       0.0       0.0       0.0
$#  alpha1    alpha2    alpha3    alpha4    alpha5    alpha6    alpha7    alpha8
    3.5005    2.0845   0.50431       0.0       0.0       0.0       0.0       0.0
$#      gi     betai     vflag
4.78760E-4       0.0         0
$#      gi     betai     vflag
7.91660E-51.00000E-6         0
$#      gi     betai     vflag
2.08450E-51.00000E-4         0
*MAT_RIGID_TITLE
Accel Block
$#     mid        ro         e        pr         n    couple         m     alias
         33.14980E-6     207.0      0.28       0.0       0.0       0.0          
$#     cmo      con1      con2    spcnid      xspc      yspc      zspc
       0.0         0         0         0       0.0       0.0       0.0
$#lco or a1        a2        a3        v1        v2        v3    bndlco
       0.0       0.0       0.0       0.0       0.0       0.0       0.0
*MAT_RIGID_TITLE
Back Plate
$#     mid        ro         e        pr         n    couple         m     alias
         43.14980E-6     207.0      0.28       0.0       0.0       0.0          
$#     cmo      con1      con2    spcnid      xspc      yspc      zspc
       0.0         0         0         0       0.0       0.0       0.0
$#lco or a1        a2        a3        v1        v2        v3    bndlco
       0.0       0.0       0.0       0.0       0.0       0.0       0.0
*MAT_ELASTIC_TITLE
spring
$#     mid        ro         e        pr        da        db  not used  not used
         57.83000E-6     207.0       0.3       0.0       0.0         0         0
*MAT_RIGID_TITLE
Skull
$#     mid        ro         e        pr         n    couple         m     alias
         62.90600E-6     207.0      0.28       0.0       0.0       0.0          
$#     cmo      con1      con2    spcnid      xspc      yspc      zspc
       0.0         0         0         0       0.0       0.0       0.0
$#lco or a1        a2        a3        v1        v2        v3    bndlco
       0.0       0.0       0.0       0.0       0.0       0.0       0.0
*NODE
$#   nid               x               y               z      tc      rc
  396278           -29.3       -14.45608        98.23636       0       0
  396279           -29.3       -16.96596        98.23636       0       0
  396280           -29.3       -19.47584        98.23636       0       0
  396281       -29.59229       -14.45608         104.186       0       0
  396282       -29.59229       -16.96596         104.186       0       0
  396283       -29.59229       -19.47584         104.186       0       0
  396284       -30.46633       -14.45607        110.0784       0       0
  396285       -30.46633       -16.96595        110.0784       0       0
  396286       -30.46633       -19.47583        110.0784       0       0
  396287       -31.91372       -14.45607        115.8567       0       0
  396288       -31.91372       -16.96595        115.8567       0       0
  396289       -31.91372       -19.47583        115.8567       0       0
  396290       -33.92051       -14.45607        121.4653       0       0
  396291       -33.92051       -16.96595        121.4653       0       0
  396292       -33.92051       -19.47583        121.4653       0       0
  396293       -36.46738       -14.45607        126.8502       0       0
  396294       -36.46738       -16.96595        126.8502       0       0
  396295       -36.46738       -19.47583        126.8502       0       0
  396296       -39.52979       -14.45607        131.9595       0       0
  396297       -39.52979       -16.96595        131.9595       0       0
$ ... 25738 like lines cut
*DEFINE_CURVE
$#    lcid      sidr       sfa       sfo      offa      offo    dattyp     lcint
         1         0       1.0       1.0       0.0       0.0         0         0
$#                a1                  o1
                 0.0               0.001
             10000.0               0.001
*CONSTRAINED_EXTRA_NODES_SET
$#     pid      nsid     iflag
         4         4         0
*SET_NODE_LIST_TITLE
spring_connection
$#     sid       da1       da2       da3       da4    solver       its         -
         4       0.0       0.0       0.0       0.0MECH               1          
$#    nid1      nid2      nid3      nid4      nid5      nid6      nid7      nid8
    447748    447733    447734    447735    447736    447737    447738    447739
    447740    447741    447742    447743    447744    447745    447746    447747
*CONSTRAINED_EXTRA_NODES_SET
$#     pid      nsid     iflag
        11         5         0
*SET_NODE_LIST_TITLE
Wing Node Set
$#     sid       da1       da2       da3       da4    solver       its         -
         5       0.0       0.0       0.0       0.0MECH               1          
$#    nid1      nid2      nid3      nid4      nid5      nid6      nid7      nid8
     10467     10463     10468     10458      3884     10462     10461     10456
     10453     10455      9767     10459      3897      3907     10443     10444
     10441     10442     10445     10447     10450     10451     10452     10437
     10438     10440      3917      6068      3908   1215179   1215734   1215733
   1215735   1215736   1215739   1215740   1215743   1215744   1215186   1215745
   1215187   1215101   1215149   1215102   1215148   1215100   1215147   1215099
   1215098   1215146   1215145   1215096   1215188         0         0         0
*CONSTRAINED_RIGID_BODIES
$#    pidl      pidc     iflag
         6         4         0
         4         3         0
         6         2         0
*PART
$#                                                                         title
Skin
$#     pid     secid       mid     eosid      hgid      grav    adpopt      tmid
         2         2         6         0         2         0         0         0
*SECTION_SOLID_TITLE
Skin
$#   secid    elform       aet    unused    unused    unused    cohoff   gaskett
         2         1         1                                     0.0       0.0
*PART
$#                                                                         title
Accel Block
$#     pid     secid       mid     eosid      hgid      grav    adpopt      tmid
         3         3         3         0         0         0         0         0
*SECTION_SOLID_TITLE
Accel Block
$#   secid    elform       aet    unused    unused    unused    cohoff   gaskett
         3         1         0                                     0.0       0.0
*PART
$#                                                                         title
Back Plate
$#     pid     secid       mid     eosid      hgid      grav    adpopt      tmid
         4         4         4         0         0         0         0         0
*SECTION_SOLID_TITLE
Back Plate
$#   secid    elform       aet    unused    unused    unused    cohoff   gaskett
         4         1         0                                     0.0       0.0
*PART
$#                                                                         title
Spring
$#     pid     secid       mid     eosid      hgid      grav    adpopt      tmid
         5         5         5         0         0         0         0         0
*SECTION_BEAM_TITLE
Spring
$#   secid    elform      shrf   qr/irid       cst     scoor       nsm     naupd
         5         1       1.0         2         1       0.0       0.0         0
$#     ts1       ts2       tt1       tt2     nsloc     ntloc     itorm
      15.0      15.0       0.0       0.0       0.0       0.0       0.0
*PART
$#                                                                         title
Skull
$#     pid     secid       mid     eosid      hgid      grav    adpopt      tmid
         6         6         6         0         0         0         0         0
*SECTION_SOLID_TITLE
Skull
$#   secid    elform       aet    unused    unused    unused    cohoff   gaskett
         6         1         0                                     0.0       0.0
*ELEMENT_SOLID
$#   eid     pid      n1      n2      n3      n4      n5      n6      n7      n8
  826857       2  396278  396305  396308  396281  396279  396306  396309  396282
  826858       2  396305  396332  396335  396308  396306  396333  396336  396309
  826859       2  396281  396308  396311  396284  396282  396309  396312  396285
  826860       2  396308  396335  396338  396311  396309  396336  396339  396312
  826861       2  396284  396311  396314  396287  396285  396312  396315  396288
  826862       2  396311  396338  396341  396314  396312  396339  396342  396315
  826863       2  396287  396314  396317  396290  396288  396315  396318  396291
  826864       2  396314  396341  396344  396317  396315  396342  396345  396318
  826865       2  396290  396317  396320  396293  396291  396318  396321  396294
  826866       2  396317  396344  396347  396320  396318  396345  396348  396321
  826867       2  396293  396320  396323  396296  396294  396321  396324  396297
  826868       2  396320  396347  396350  396323  396321  396348  396351  396324
  826869       2  396296  396323  396326  396299  396297  396324  396327  396300
  826870       2  396323  396350  396353  396326  396324  396351  396354  396327
  826871       2  396299  396326  396329  396302  396300  396327  396330  396303
  826872       2  396326  396353  396356  396329  396327  396354  396357  396330
  826873       2  396279  396306  396309  396282  396280  396307  396310  396283
  826874       2  396306  396333  396336  396309  396307  396334  396337  396310
  826875       2  396282  396309  396312  396285  396283  396310  396313  396286
  826876       2  396309  396336  396339  396312  396310  396337  396340  396313
$ ... 20007 like lines cut
*ELEMENT_BEAM
$#   eid     pid      n1      n2      n3     rt1     rr1     rt2     rr2   local
   23336       5  447648  447649       0       0       0       0       0       2
   23337       5  447649  447650       0       0       0       0       0       2
   23338       5  447650  447651       0       0       0       0       0       2
   23339       5  447651  447652       0       0       0       0       0       2
   23340       5  447652  447653       0       0       0       0       0       2
   23341       5  447653  447654       0       0       0       0       0       2
   23342       5  447654  447655       0       0       0       0       0       2
   23343       5  447655  447656       0       0       0       0       0       2
   23344       5  447656  447657       0       0       0       0       0       2
   23345       5  447657  447658       0       0       0       0       0       2
   23346       5  447658  447659       0       0       0       0       0       2
   23347       5  447659  447660       0       0       0       0       0       2
   23348       5  447660  447661       0       0       0       0       0       2
   23349       5  447661  447662       0       0       0       0       0       2
   23350       5  447662  447663       0       0       0       0       0       2
   23351       5  447663  447664       0       0       0       0       0       2
   23352       5  447664  447665       0       0       0       0       0       2
   23353       5  447665  447666       0       0       0       0       0       2
   23354       5  447666  447667       0       0       0       0       0       2
   23355       5  447667  447668       0       0       0       0       0       2
$ ... 80 like lines cut
*ELEMENT_SEATBELT_ACCELEROMETER
$#  sbacid      nid1      nid2      nid3     igrav    intopt      mass
         1    421956    421940    447613         0         0       0.0
*SET_NODE_LIST
$#     sid       da1       da2       da3       da4    solver       its         -
         2       0.0       0.0       0.0       0.0MECH               1          
$#    nid1      nid2      nid3      nid4      nid5      nid6      nid7      nid8
    396278    396279    396280    396281    396282    396283    396284    396285
    396286    396287    396288    396289    396290    396291    396292    396293
    396294    396295    396296    396297    396298    396299    396300    396301
    396302    396303    396304    396305    396306    396307    396308    396309
    396310    396311    396312    396313    396314    396315    396316    396317
    396318    396319    396320    396321    396322    396323    396324    396325
    396326    396327    396328    396329    396330    396331    396332    396333
    396334    396335    396336    396337    396338    396339    396340    396341
    396342    396343    396344    396345    396346    396347    396348    396349
    396350    396351    396352    396353    396354    396355    396356    396357
    396358    396359    396360    396361    396362    396363    396364    396365
    396366    396367    396368    396369    396370    396371    396372    396373
    396374    396375    396376    396377    396378    396379    396380    396381
    396382    396383    396384    396385    396386    396387    396388    396389
    396390    396391    396392    396393    396394    396395    396396    396397
    396398    396399    396400    396401    396402    396403    396404    396405
    396406    396407    396408    396409    396410    396411    396412    396413
    396414    396415    396416    396417    396418    396419    396420    396421
    396422    396423    396424    396425    396426    396427    396428    396429
    396430    396431    396432    396433    396434    396435    396436    396437
$ ... 233 like lines cut
*COMMENT
 $$$$$$$$$$$$$$$$$$$$$$$$$$$$$$$$$$$$$$$$$$$$$$$$$$$$$$$$$$$$$$$$$$$$$$$$$$$$$$$

  Notice

  ____LSTC.PEDESTRIAN_HEADFORM_CHILD.180605_V1.03.2BETA.k____

  The subject model ("Model") has been developed by Livermore Software
  Technology Corporation (LSTC). The Model is based on:

  E/ECE/324/Rev.2/Add.126
  E/ECE/TRANS/505/Rev.2/Add.126

  The Model has been validated to the certification tests described in the
  regulation. Validation results can be found in the accompanying
  documentation.

  The Model is distributed free of charge to licensees of LSTC's LS-DYNA
  software who are current with their annual license fees (Annual License)
  or maintenance fees (Paid-up License). LSTC and its distributors hereby
  grant Model users a non-exclusive and non-transferable license to use the
  Model for their own internal business purposes.

  As a condition for the free use of the Model, user agrees that it will not
  employ the Model or parts thereof outside the LS-DYNA environment.

  Even though the Model is continuously updated and improved, each user is
  solely responsible for its own results. LSTC assume no responsibility
  whatsoever for the validity, accuracy, or applicability of the Model or any
  results obtained with the Model.

  SPECIFICALLY, LSTC DISCLAIMS ALL WARRANTIES, EXPRESS OR IMPLIED, INCLUDING
  BUT NOT LIMITED TO THE WARRANTY OF MERCHANTABILITY AND FITNESS FOR A
  PARTICULAR PURPOSE. LSTC DOES NOT WARRANT THAT THE MODEL WILL MEET THE
  USER'S REQUIREMENTS, OPERATE IN COMBINATIONS SELECTED BY THE USER, PRODUCE
  RESULTS DESIRED BY THE USER, OR OPERATE WITHOUT INTERRUPTION OR ERROR FREE.

  LSTC SHALL NOT BE LIABLE FOR ANY LOSS OR DAMAGE THAT MAY ARISE IN
  CONNECTION WITH FURNISHING, PERFORMANCE, OR USE OF THE MODEL, INCLUDING,
  WITHOUT LIMITATION, ANY DIRECT, INDIRECT, SPECIAL, INCIDENTAL, OR
  CONSEQUENTIAL DAMAGES OF ANY KIND.

  LSTC endeavors to make the Model as complete, accurate, reliable, and easy
  to use as possible. Suggestions and comments should be e-mailed to
  atds@lstc.com. Please report any errors encountered in either the
  documentation or results immediately to LSTC through your site focus.

  Copyright  2017-2018
  by Livermore Software Technology Corp. (LSTC)

  All rights reserved

  LS-DYNA, LS-OPT, and LS-PrePost are registered trademarks of Livermore
  Software Technology Corporation in the United States.

 $$$$$$$$$$$$$$$$$$$$$$$$$$$$$$$$$$$$$$$$$$$$$$$$$$$$$$$$$$$$$$$$$$$$$$$$$$$$$$$

 $$$$$$$$$$$$$$$$$$$$$$$$$$$$$$$$$$$$$$$$$$$$$$$$$$$$$$$$$$$$$$$$$$$$$$$$$$$$$$$
  LSTC.PEDESTRIAN_HEADFORM_CHILD.180605_V1.03.2BETA.k                          $
  units  :  mm ms kg kN                                                        $
  ---------------------------------------------------------------------------- $
  6th of June 2018                                                             $
  -----------------------------------------------------------------------------$
  Head Accelerometer Node  :  25679                                            $
  -----------------------------------------------------------------------------$
 $$$$$$$$$$$$$$$$$$$$$$$$$$$$$$$$$$$$$$$$$$$$$$$$$$$$$$$$$$$$$$$$$$$$$$$$$$$$$$$
 
 ACKNOWLEDGEMENT
 We would like to thank The Automotive Research Association of India (ARAI)
 providing certification test data, details about the physical headform,
 good advice, and very valuable feedback on the model.
 Without ARAIs help it would have been difficult if not impossible
 to create the Child Pedestrian Headform model.

 $$$$$$$$$$$$$$$$$$$$$$$$$$$$$$$$$$$$$$$$$$$$$$$$$$$$$$$$$$$$$$$$$$$$$$$$$$$$$$$
*END
