$# LS-DYNA Keyword file created by LS-PrePost(R) 2024/R2(4.11.3)-19Apr2024
$# Created on May-7-2025 (00:54:03)
*KEYWORD
*TITLE
$#                                                                         title
LS-DYNA keyword deck by LS-PrePost
*PART
$#                                                                         title
Nose Cone
$#     pid     secid       mid     eosid      hgid      grav    adpopt      tmid
         1         1         1         0         0         0         0         0
*SECTION_SOLID
$#   secid    elform       aet    unused    unused    unused    cohoff   gaskeit
         1        10         0                                     0.0       0.0
*MAT_CRUSHABLE_FOAM_TITLE
EPO Foam
$#     mid        ro         e        pr      lcid       tsc      damp     model
         18.00000E-8     0.008       0.0        12     0.008       0.1         0
*DEFINE_BOX
$#   boxid       xmn       xmx       ymn       ymx       zmn       zmx
         1    -100.0     100.0       0.0     200.0    -100.0     100.0
*DEFINE_CURVE_TITLE
True Stress-strain
$#    lcid      sidr       sfa       sfo      offa      offo    dattyp     lcint
        10         0       1.0       1.0       0.0       0.0         0         0
$#                a1                  o1
                 0.0                 0.0
           0.0058874    1.1099999938e-05
           0.0118309    3.1999999919e-05
           0.0177948    6.0499998654e-05
           0.0237974    1.0399999883e-04
           0.0298456    1.5599999460e-04
           0.0359181    2.1600000036e-04
           0.0420278    2.8800001019e-04
           0.0481938    3.6299999920e-04
           0.0543792    4.3799998821e-04
            0.060603    4.7999998787e-04
           0.0668818    5.0800002646e-04
           0.0731907    5.3000001935e-04
           0.0795298    5.4799998179e-04
           0.0859323    5.6299997959e-04
           0.0923694    5.7500001276e-04
           0.0988251    5.8499997249e-04
           0.1053493    5.9499999043e-04
           0.1119131    6.0299999313e-04
           0.1184966    6.0999998823e-04
$ ... 142 like lines cut
*DEFINE_CURVE_TITLE
Stress-strain
$#    lcid      sidr       sfa       sfo      offa      offo    dattyp     lcint
        12         0       1.0       1.0       0.0       0.0         0         0
$#                a1                  o1
                 0.0                 0.0
           0.0058701    1.1099999938e-05
           0.0117612    3.1999999919e-05
           0.0176374    6.0499998654e-05
           0.0235165    1.0399999883e-04
           0.0294046    1.5599999460e-04
           0.0352807    2.1600000036e-04
           0.0411568    2.8800001019e-04
           0.0470509    3.6299999920e-04
           0.0529271    4.3799998821e-04
           0.0588032    4.7999998787e-04
           0.0646943    5.0800002646e-04
           0.0705764    5.3000001935e-04
           0.0764495    5.4799998179e-04
           0.0823436    5.6299997959e-04
           0.0882317    5.7500001276e-04
           0.0940989    5.8499997249e-04
             0.09999    5.9499999043e-04
            0.105878    6.0299999313e-04
           0.1117452    6.0999998823e-04
$ ... 142 like lines cut
*DEFINE_TRANSFORMATION
$#  tranid
        10
$#  option        a1        a2        a3        a4        a5        a6        a7
TRANSL         -40.0       0.0     -40.0       0.0       0.0       0.0       0.0
*INCLUDE_TRANSFORM
$#                                                                      filename
D:\Projects_code\TopologyNoseCone\DYNA_file\nose_cone_mesh.k
$#  idnoff    ideoff    idpoff    idmoff    idsoff    idfoff    iddoff
         0         0         0         0         0         0         0
$#  idroff         -    prefix    suffix
         0                              
$#  fctmas    fcttim    fctlen    fcttem   incout1    fctchg
       1.0       1.0       1.01.0                1       0.0
$#  tranid
        10
*INITIAL_VELOCITY
$#    nsid    nsidex     boxid    irigid      icid
        11         0         0         0         0
$#      vx        vy        vz       vxr       vyr       vzr
       0.0      10.0       0.0       0.0       0.0       0.0
*SET_BOX_TITLE
All nodes
$#     sid
         1
$#    bid1      bid2      bid3      bid4      bid5      bid6      bid7      bid8
         1         0         0         0         0         0         0         0
*SET_NODE_LIST_TITLE
Connect body
$#     sid       da1       da2       da3       da4    solver       its         -
         1       0.0       0.0       0.0       0.0MECH               1          
$#    nid1      nid2      nid3      nid4      nid5      nid6      nid7      nid8
       266        27       265        34       922        33       892       891
        13        32       820      1231       792        77       793        78
        48      1232        49        71       992        72      1253        54
      1179       844        56        28        29       927      1018      1177
        64         4       990       674      1169         9         2         3
       796        53        52        76        46        47       748      1037
        70        59        74       753       755         6         7        68
        90        69        89        45       798        30        75      1230
        55        24       889        23        25        57        58      1036
        26        51      1294      1052        19        20       788        12
      1255        67        39        40        37       952       951      1019
         1        38        63        35        36        42       885       886
        17        18      1167        60      1180        61        31        62
        65        43        41        66        44        21        22         5
      1131      1041        73         8      1042        80        50        10
        11        16        15        79        14         0         0         0
*SET_NODE_LIST_TITLE
Total
$#     sid       da1       da2       da3       da4    solver       its         -
        11       0.0       0.0       0.0       0.0MECH               1          
$#    nid1      nid2      nid3      nid4      nid5      nid6      nid7      nid8
         1         2         3         4         5         6         7         8
         9        10        11        12        13        14        15        16
        17        18        19        20        21        22        23        24
        25        26        27        28        29        30        31        32
        33        34        35        36        37        38        39        40
        41        42        43        44        45        46        47        48
        55        56        59        63        64        70        73        81
        82        83        84        85        86        87        88        89
        90        91        92        93        94        95        96        97
        98        99       100       101       102       103       104       105
       106       107       108       109       110       111       112       113
       114       115       116       117       118       119       120       121
       122       123       124       125       126       127       128       129
       130       131       132       133       134       135       136       137
       138       139       140       141       142       143       144       145
       146       147       148       149       150       151       152       153
       154       155       156       157       158       159       160       161
       162       163       164       165       166       167       168       169
       170       171       172       173       174       175       176       177
       178       179       180       181       182       183       184       185
$ ... 249 like lines cut
*END
