$# LS-PrePost command file created by LS-PrePost(R) 2025 R1 (v4.12.6) - 14May2025 -64bit-Window
$# Created on Jan-25-2026 (14:57:06)
openc keyword "D:\Modified_Wing\LS-DYNA\WingLattice_System.k"
Message 1
Message 0
