$# LS-DYNA Keyword file created by LS-PrePost(R) 2025 R1 (v4.12.6) - 14May2025
$# Created on Oct-24-2025 (17:25:01)
*KEYWORD
*MAT_CRUSHABLE_FOAM
$#     mid        ro         e        pr      lcid       tsc      damp     model
        118.00000E-8     0.008       0.0         0     0.008       0.1         0
*MAT_RIGID
$#     mid        ro         e        pr         n    couple         m     alias
        138.00000E-8     0.008       0.0       0.0       0.0       0.0          
$#     cmo      con1      con2    spcnid      xspc      yspc      zspc
       0.0         0         0         0       0.0       0.0       0.0
$#lco or a1        a2        a3        v1        v2        v3    bndlco
       0.0       0.0       0.0       0.0       0.0       0.0       0.0
*NODE
$#   nid               x               y               z      tc      rc
 1985499             0.0       -20.76364      -0.7636404       0       0
 1985500           177.8       -20.76364      -0.7636404       0       0
 1985501           177.8        30.03636      -0.7636461       0       0
 1985502             0.0        30.03636      -0.7636461       0       0
 1985503             0.0       -20.76365       -102.3636       0       0
 1985504           330.2       -20.76365       -102.3636       0       0
 1985505           330.2       -20.76365       -51.56364       0       0
 1985506           177.8       -20.76365       -51.56364       0       0
 1985507             0.0        30.03635       -102.3636       0       0
 1985508           177.8        30.03635       -51.56365       0       0
 1985509           330.2        30.03635       -51.56365       0       0
 1985510           330.2        30.03635       -102.3636       0       0
 1985511        9.877778       -20.76364      -0.7636404       0       0
 1985512        19.75556       -20.76364      -0.7636404       0       0
 1985513        29.63333       -20.76364      -0.7636404       0       0
 1985514        39.51111       -20.76364      -0.7636404       0       0
 1985515        49.38889       -20.76364      -0.7636404       0       0
 1985516        59.26667       -20.76364      -0.7636404       0       0
 1985517        69.14445       -20.76364      -0.7636404       0       0
 1985518        79.02222       -20.76364      -0.7636404       0       0
$ ... 1828 like lines cut
*PART
$#                                                                         title
Solid1
$#     pid     secid       mid     eosid      hgid      grav    adpopt      tmid
        11        11        13         0         0         0         0         0
*SECTION_SOLID
$#   secid    elform       aet    unused    unused    unused    cohoff   gaskett
        11         1         0                                     0.0       0.0
*ELEMENT_SOLID
$#   eid     pid      n1      n2      n3      n4      n5      n6      n7      n8
 3747042      11 1986256 1986214 1987195 1986663 1986215 1986215 1987139 1987139
 3747043      11 1986663 1987195 1987196 1986664 1987139 1987139 1987140 1987140
 3747044      11 1986664 1987196 1987197 1986665 1987140 1987140 1987141 1987141
 3747045      11 1986665 1987197 1987198 1986666 1987141 1987141 1987142 1987142
 3747046      11 1986666 1987198 1986081 1985948 1987142 1987142 1986067 1986067
 3747047      11 1986338 1986330 1986871 1987235 1986329 1986329 1986855 1986855
 3747048      11 1987235 1986871 1986872 1987236 1986855 1986855 1986856 1986856
 3747049      11 1987236 1986872 1986873 1987237 1986856 1986856 1986857 1986857
 3747050      11 1987237 1986873 1986874 1987238 1986857 1986857 1986858 1986858
 3747051      11 1987238 1986874 1986000 1986091 1986858 1986858 1985996 1985996
 3747052      11 1985553 1986119 1985594 1985503 1985859 1987027 1986463 1985631
 3747053      11 1985859 1987027 1986463 1985631 1985860 1987028 1986464 1985630
 3747054      11 1985860 1987028 1986464 1985630 1985861 1987029 1986465 1985629
 3747055      11 1985861 1987029 1986465 1985629 1985862 1987030 1986466 1985628
 3747056      11 1985862 1987030 1986466 1985628 1985618 1986039 1985686 1985507
 3747057      11 1985499 1985511 1986120 1985562 1985552 1985699 1987011 1985895
 3747058      11 1985552 1985699 1987011 1985895 1985551 1985700 1987012 1985896
 3747059      11 1985551 1985700 1987012 1985896 1985550 1985701 1987013 1985897
 3747060      11 1985550 1985701 1987013 1985897 1985549 1985702 1987014 1985898
 3747061      11 1985549 1985702 1987014 1985898 1985502 1985532 1986035 1985627
$ ... 1300 like lines cut
*END
