$# LS-DYNA Keyword file created by LS-PrePost(R) 2025 R1 (v4.12.6) - 14May2025
$# Created on Sep-16-2025 (19:14:21)
*KEYWORD
*MAT_RIGID
$#     mid        ro         e        pr         n    couple         m     alias
         88.00000E-6      40.0      0.45       0.0       0.0       0.0          
$#     cmo      con1      con2    spcnid      xspc      yspc      zspc
       0.0         0         0         0       0.0       0.0       0.0
$#lco or a1        a2        a3        v1        v2        v3    bndlco
       0.0       0.0       0.0       0.0       0.0       0.0       0.0
*NODE
$#   nid               x               y               z      tc      rc
  100433            30.0            50.0           -20.0       0       0
  100434        36.66667            50.0           -20.0       0       0
  100435        43.33333            50.0           -20.0       0       0
  100436            50.0            50.0           -20.0       0       0
  100437        56.66667            50.0           -20.0       0       0
  100438        63.33333            50.0           -20.0       0       0
  100439            70.0            50.0           -20.0       0       0
  100440        76.66666            50.0           -20.0       0       0
  100441        83.33333            50.0           -20.0       0       0
  100442            90.0            50.0           -20.0       0       0
  100443        96.66666            50.0           -20.0       0       0
  100444        103.3333            50.0           -20.0       0       0
  100445           110.0            50.0           -20.0       0       0
  100446        116.6667            50.0           -20.0       0       0
  100447        123.3333            50.0           -20.0       0       0
  100448           130.0            50.0           -20.0       0       0
  100449        136.6667            50.0           -20.0       0       0
  100450        143.3333            50.0           -20.0       0       0
  100451           150.0            50.0           -20.0       0       0
  100452        156.6667            50.0           -20.0       0       0
$ ... 3731 like lines cut
*PART
$#                                                                         title
UAV Body
$#     pid     secid       mid     eosid      hgid      grav    adpopt      tmid
         8         8         8         0         0         0         0         0
*SECTION_SOLID
$#   secid    elform       aet    unused    unused    unused    cohoff   gaskett
         8         1         0                                     0.0       0.0
*ELEMENT_SOLID
$#   eid     pid      n1      n2      n3      n4      n5      n6      n7      n8
  207765       8  100433  100434  100465  100464  100774  100775  100806  100805
  207766       8  100434  100435  100466  100465  100775  100776  100807  100806
  207767       8  100435  100436  100467  100466  100776  100777  100808  100807
  207768       8  100436  100437  100468  100467  100777  100778  100809  100808
  207769       8  100437  100438  100469  100468  100778  100779  100810  100809
  207770       8  100438  100439  100470  100469  100779  100780  100811  100810
  207771       8  100439  100440  100471  100470  100780  100781  100812  100811
  207772       8  100440  100441  100472  100471  100781  100782  100813  100812
  207773       8  100441  100442  100473  100472  100782  100783  100814  100813
  207774       8  100442  100443  100474  100473  100783  100784  100815  100814
  207775       8  100443  100444  100475  100474  100784  100785  100816  100815
  207776       8  100444  100445  100476  100475  100785  100786  100817  100816
  207777       8  100445  100446  100477  100476  100786  100787  100818  100817
  207778       8  100446  100447  100478  100477  100787  100788  100819  100818
  207779       8  100447  100448  100479  100478  100788  100789  100820  100819
  207780       8  100448  100449  100480  100479  100789  100790  100821  100820
  207781       8  100449  100450  100481  100480  100790  100791  100822  100821
  207782       8  100450  100451  100482  100481  100791  100792  100823  100822
  207783       8  100451  100452  100483  100482  100792  100793  100824  100823
  207784       8  100452  100453  100484  100483  100793  100794  100825  100824
$ ... 2980 like lines cut
*END
