$
*KEYWORD
*TITLE
D:\Modified_Wing\LS-DYNA\Wing_FoamHalf.k
*NODE
$#   nid               x               y               z      tc      rc
       1 289.38650512695    1.3038419485 6.1801424026489                
       2 289.38650512695    1.3038419485 11.182292938232                
       3 289.38650512695    1.3038419485 16.187982559204                
       4 289.38650512695    1.3038419485 21.194990158081                
       5 289.38650512695 1.3038420677185 26.201999664307                
       6 289.38650512695 1.3038421869278 31.209007263184                
       7 289.38650512695 1.3038421869278    36.216014862                
       8 289.38650512695 1.3038421869278 41.223022460938                
       9 289.38650512695 1.3038421869278 46.230030059815                
      10 289.38650512695 1.3038421869278 51.237037658691                
      11 289.38650512695 1.3038421869278 56.244045257568                
      12 289.38650512695 1.3038421869278 61.251049041748                
      13 289.38650512695 1.3038421869278 66.258041381836                
      14 289.38650512695 1.3038420677185 71.265022277832                
      15 289.38650512695 1.3038420677185 76.271934509277                
      16 289.38650512695    1.3038419485 81.278686523438                
      17 289.38650512695    1.3038419485 86.285018920898                
      18 289.38650512695    1.3038419485 91.290367126465                
      19 289.38650512695    1.3038419485 96.293769836426                
      20     284.2835083 1.4313533306122 101.42002868652                
$ ... 3650 like lines cut
*ELEMENT_SOLID
$#   eid     pid      n1      n2      n3      n4      n5      n6      n7      n8
       1       1     880      79    1016    1550    1550    1550    1550    1550
       2       1     880    1548    1601    1550    1550    1550    1550    1550
       3       1     880     825    1548    1550    1550    1550    1550    1550
       4       1     880    1601      79    1550    1550    1550    1550    1550
       5       1     880    1016     825    1550    1550    1550    1550    1550
       6       1     906     951     904    1664    1664    1664    1664    1664
       7       1     906     904    1622    1664    1664    1664    1664    1664
       8       1     906    1665     951    1664    1664    1664    1664    1664
       9       1     906    1622    1665    1664    1664    1664    1664    1664
      10       1     135    1605      78    1601    1601    1601    1601    1601
      11       1     135     884    1605    1601    1601    1601    1601    1601
      12       1     135      79     880    1601    1601    1601    1601    1601
      13       1     135     880     884    1601    1601    1601    1601    1601
      14       1     135      78      79    1601    1601    1601    1601    1601
      15       1     892    1664    1662    1612    1612    1612    1612    1612
      16       1     892     890     888    1612    1612    1612    1612    1612
      17       1     892     888     904    1612    1612    1612    1612    1612
      18       1     892    1662     890    1612    1612    1612    1612    1612
      19       1     892     904    1664    1612    1612    1612    1612    1612
      20       1    1665     906     948     949     949     949     949     949
$ ... 16807 like lines cut
*DEFINE_CURVE
$#    lcid      sidr       sfa       sfo      offa      offo    dattyp     lcint
        12         0       1.0       1.0       0.0       0.0         0         0
$#                a1                  o1
                 0.0                 0.0
           0.0058701    1.1099999938e-05
0.011761199999999901    3.1999999919e-05
0.017637400000000001    6.0499998654e-05
0.023516499999999801    0.00010399999883
0.029404599999999802     0.0001559999946
0.035280699999999901    0.00021600000036
           0.0411568    0.00028800001019
           0.0470509     0.0003629999992
0.052927099999999901    0.00043799998821
           0.0588032    0.00047999998787
0.064694299999999802    0.00050800002646
  0.0705763999999999    0.00053000001935
0.076449500000000004    0.00054799998179
0.082343600000000003    0.00056299997959
0.088231699999999802    0.00057500001276
0.094098899999999902    0.00058499997249
0.099989999999999801    0.00059499999043
            0.105878    0.00060299999313
0.111745200000000003    0.00060999998823
$ ... 142 like lines cut
*MAT_CRUSHABLE_FOAM
$#     mid        ro         e        pr      lcid       tsc      damp     model
         7     8e-08      0.08       0.0        12     0.008       0.1         0
*SECTION_SOLID
$#   secid    elform       aet    unused    unused    unused    cohoff   gaskeit
         7        10         0                                                  
*PART
$#                                                             heading
nan                                                                   
$#     pid     secid       mid     eosid      hgid      grav    adpopt      tmid
         7         7         7                                                  
*SET_SEGMENT
$#     sid       da1       da2       da3       da4    solver       its    unused
         1       0.0       0.0       0.0       0.0MECH                          
$#      n1        n2        n3        n4        a1        a2        a3        a4
      1064      1064      1064      1064       0.0       0.0       0.0       0.0
      1062      1061      1064      1064       0.0       0.0       0.0       0.0
      1061      1064      1064      1064       0.0       0.0       0.0       0.0
      1064      1064      1064      1064       0.0       0.0       0.0       0.0
      1062      1064      1064      1064       0.0       0.0       0.0       0.0
        62        62        62        62       0.0       0.0       0.0       0.0
      1039        63        62        62       0.0       0.0       0.0       0.0
        63        62        62        62       0.0       0.0       0.0       0.0
        62        62        62        62       0.0       0.0       0.0       0.0
      1039        62        62        62       0.0       0.0       0.0       0.0
       281       281       281       281       0.0       0.0       0.0       0.0
      1046       281       281       281       0.0       0.0       0.0       0.0
       281      1038       281       281       0.0       0.0       0.0       0.0
       281       281       281       281       0.0       0.0       0.0       0.0
       281      1038       281       281       0.0       0.0       0.0       0.0
      1061      1061      1061      1061       0.0       0.0       0.0       0.0
      1066      1065      1061      1061       0.0       0.0       0.0       0.0
      1061      1066      1061      1061       0.0       0.0       0.0       0.0
       293       293       293       293       0.0       0.0       0.0       0.0
       281       190       293       293       0.0       0.0       0.0       0.0
$ ... 123 like lines cut
*SET_NODE_LIST
$#     sid       da1       da2       da3       da4    solver       its    unused
         3       0.0       0.0       0.0       0.0MECH      1                   
$#   nodes     nodes     nodes     nodes     nodes     nodes     nodes     nodes
        75        76        77        78        79        80        81        82
        83        84        85        86        87        88        89        90
        91        92        93        94        95        96        97        98
        99       100       101       102       103       104       105       106
       107       108       109       111       131       132       133       134
       135       136       137       138       202       203       204       205
       206       207       208       209       210       211       212       213
       214       215       216       217       218       219       220       221
       222       231       232       233       234       235       236       237
       239       240       241       242       243       244       245       246
       247       248       249       250       251       252       253       254
       256       257       258       259       261       262       264       265
       966       967       968       969       970       971       972       973
       974       975       976       977       978       979       980       981
       982       983       984       985       986       987       988       989
       990       991       992       993       994       995       996       997
       998      1000      1001      1002      1003      1004      1005      1006
      1007      1009      1010      1011      1012      1013      1014      1015
      1016      1017      1018
*END