$# LS-DYNA Keyword file created by LS-PrePost(R) 2025 R1 (v4.12.6) - 14May2025
$# Created on Jan-4-2026 (20:04:59)
$ VKI 132352 22-Oct-25 10:02:29
*KEYWORD
*TITLE
$#                                                                         title
LS-DYNA keyword deck by LS-PrePost
*MAT_CRUSHABLE_FOAM
$#     mid        ro         e        pr      lcid       tsc      damp     model
         78.00000E-8     0.008       0.0        12     0.008       0.1         0
$***       Nodes
*NODE
$#   nid               x               y               z      tc      rc
 3974693         146.688       0.8226559        5.666346       0       0
 3974694         146.688       0.8226559        10.75779       0       0
 3974695         146.688       0.8226559        15.83338       0       0
 3974696         146.688       0.8226559         20.9009       0       0
 3974697         146.688       0.8226559        25.96664       0       0
 3974698         146.688       0.8226559        31.03195       0       0
 3974699         146.688       0.8226559        36.09717       0       0
 3974700         146.688       0.8226559        41.16252       0       0
 3974701         146.688       0.8226559        46.22784       0       0
 3974702         146.688       0.8226559        51.29312       0       0
 3974703         146.688       0.8226559        56.35844       0       0
 3974704         146.688       0.8226559        61.42369       0       0
 3974705         146.688       0.8226559        66.48885       0       0
 3974706         146.688       0.8226559        71.55427       0       0
 3974707         146.688       0.8226559        76.61944       0       0
 3974708         146.688       0.8226559        81.68481       0       0
 3974709         146.688       0.8226559        86.74987       0       0
 3974710         146.688       0.8226559        91.81522       0       0
 3974711         146.688       0.8226559        96.88053       0       0
 3974712         146.688       0.8226559        101.9459       0       0
$ ... 1130 like lines cut
*DEFINE_CURVE_TITLE
Stress-strain
$#    lcid      sidr       sfa       sfo      offa      offo    dattyp     lcint
        12         0       1.0       1.0       0.0       0.0         0         0
$#                a1                  o1
                 0.0                 0.0
           0.0058701    1.1099999938e-05
           0.0117612    3.1999999919e-05
           0.0176374    6.0499998654e-05
           0.0235165    1.0399999883e-04
           0.0294046    1.5599999460e-04
           0.0352807    2.1600000036e-04
           0.0411568    2.8800001019e-04
           0.0470509    3.6299999920e-04
           0.0529271    4.3799998821e-04
           0.0588032    4.7999998787e-04
           0.0646943    5.0800002646e-04
           0.0705764    5.3000001935e-04
           0.0764495    5.4799998179e-04
           0.0823436    5.6299997959e-04
           0.0882317    5.7500001276e-04
           0.0940989    5.8499997249e-04
             0.09999    5.9499999043e-04
            0.105878    6.0299999313e-04
           0.1117452    6.0999998823e-04
$ ... 142 like lines cut
*PART
$#                                                                         title
Other Half Foam
$#     pid     secid       mid     eosid      hgid      grav    adpopt      tmid
         7         1         7         0         0         0         0         0
*SECTION_SOLID
$#   secid    elform       aet    unused    unused    unused    cohoff   gaskett
         1        10         0                                     0.0       0.0
$***       Elements
*ELEMENT_SOLID
$#   eid     pid      n1      n2      n3      n4      n5      n6      n7      n8
 7496723       7 3975519 3975521 3975520 3975223 3975223 3975223 3975223 3975223
 7496724       7 3975519 3975520 3975170 3975223 3975223 3975223 3975223 3975223
 7496725       7 3975519 3975221 3975521 3975223 3975223 3975223 3975223 3975223
 7496726       7 3975519 3975170 3975221 3975223 3975223 3975223 3975223 3975223
 7496727       7 3975507 3975560 3975559 3975247 3975247 3975247 3975247 3975247
 7496728       7 3975507 3975559 3975214 3975247 3975247 3975247 3975247 3975247
 7496729       7 3975507 3975214 3975244 3975247 3975247 3975247 3975247 3975247
 7496730       7 3975507 3975244 3975560 3975247 3975247 3975247 3975247 3975247
 7496731       7 3975240 3975241 3975552 3975618 3975618 3975618 3975618 3975618
 7496732       7 3975240 3974816 3974815 3975618 3975618 3975618 3975618 3975618
 7496733       7 3975240 3974815 3975241 3975618 3975618 3975618 3975618 3975618
 7496734       7 3975240 3975603 3974816 3975618 3975618 3975618 3975618 3975618
 7496735       7 3975240 3975552 3975603 3975618 3975618 3975618 3975618 3975618
 7496736       7 3975553 3975555 3975557 3975242 3975242 3975242 3975242 3975242
 7496737       7 3975553 3975207 3975208 3975242 3975242 3975242 3975242 3975242
 7496738       7 3975553 3975208 3975555 3975242 3975242 3975242 3975242 3975242
 7496739       7 3975553 3975245 3975207 3975242 3975242 3975242 3975242 3975242
 7496740       7 3975553 3975557 3975245 3975242 3975242 3975242 3975242 3975242
 7496741       7 3975527 3975226 3975228 3975225 3975225 3975225 3975225 3975225
 7496742       7 3975527 3975526 3975226 3975225 3975225 3975225 3975225 3975225
$ ... 3814 like lines cut
*END
